
  EPA STORM WATER MANAGEMENT MODEL - VERSION 5.0 (Build 5.0.022)
  --------------------------------------------------------------

  changzhou 
  
  *********************************************************
  NOTE: The summary statistics displayed in this report are
  based on results found at every computational time step,  
  not just on results from each reporting time step.
  *********************************************************
  
  ****************
  Analysis Options
  ****************
  Flow Units ............... CMS
  Process Models:
    Rainfall/Runoff ........ YES
    Snowmelt ............... NO
    Groundwater ............ NO
    Flow Routing ........... YES
    Ponding Allowed ........ NO
    Water Quality .......... NO
  Infiltration Method ...... HORTON
  Flow Routing Method ...... KINWAVE
  Starting Date ............ JUN-01-2022 00:00:00
  Ending Date .............. JUN-01-2022 06:00:00
  Antecedent Dry Days ...... 0.0
  Report Time Step ......... 00:01:00
  Wet Time Step ............ 00:01:00
  Dry Time Step ............ 00:01:00
  Routing Time Step ........ 30.00 sec
  
  
  *********************
  Rainfall File Summary
  *********************
  Station    First        Last         Recording   Periods    Periods    Periods
  ID         Date         Date         Frequency  w/Precip    Missing    Malfunc.
  -------------------------------------------------------------------------------
  STA1       JUN-01-2022  JUN-01-2022     60 min       150          0          0

  
  **************************        Volume         Depth
  Runoff Quantity Continuity     hectare-m            mm
  **************************     ---------       -------
  Total Precipitation ......        81.771       310.328
  Evaporation Loss .........         0.000         0.000
  Infiltration Loss ........         0.570         2.161
  Surface Runoff ...........        81.815       310.496
  Final Surface Storage ....         0.071         0.269
  Continuity Error (%) .....        -0.838
  
  
  **************************        Volume        Volume
  Flow Routing Continuity        hectare-m      10^6 ltr
  **************************     ---------     ---------
  Dry Weather Inflow .......         0.000         0.000
  Wet Weather Inflow .......        81.815       818.159
  Groundwater Inflow .......         0.000         0.000
  RDII Inflow ..............         0.000         0.000
  External Inflow ..........         0.000         0.000
  External Outflow .........        35.612       356.121
  Internal Outflow .........        46.690       466.907
  Storage Losses ...........         0.000         0.000
  Initial Stored Volume ....         0.000         0.000
  Final Stored Volume ......         0.003         0.030
  Continuity Error (%) .....        -0.599
  
  
  ********************************
  Highest Flow Instability Indexes
  ********************************
  Link 022002 (6)
  Link 018002 (4)
  Link 013002 (4)
  Link 010003 (4)
  Link 018004 (4)
  
  
  *************************
  Routing Time Step Summary
  *************************
  Minimum Time Step           :    30.00 sec
  Average Time Step           :    30.00 sec
  Maximum Time Step           :    30.00 sec
  Percent in Steady State     :     0.00
  Average Iterations per Step :     1.80
  
  
  ***************************
  Subcatchment Runoff Summary
  ***************************
  
  --------------------------------------------------------------------------------------------------------
                            Total      Total      Total      Total      Total       Total     Peak  Runoff
                           Precip      Runon       Evap      Infil     Runoff      Runoff   Runoff   Coeff
  Subcatchment                 mm         mm         mm         mm         mm    10^6 ltr      CMS
  --------------------------------------------------------------------------------------------------------
  S016002                  310.33       0.00       0.00       1.86     311.33        3.93     7.77   1.003
  S014004                  310.33       0.00       0.00       2.22     310.46       10.75    14.62   1.000
  S017003                  310.33       0.00       0.00       2.22     310.37       11.77    15.45   1.000
  S015001                  310.33       0.00       0.00       2.22     310.50       10.28    14.23   1.001
  S013004                  310.33       0.00       0.00       2.11     310.83        6.70    10.96   1.002
  S013006                  310.33       0.00       0.00       2.16     310.77        7.27    11.53   1.001
  S014006                  310.33       0.00       0.00       2.22     310.56        9.64    13.68   1.001
  S013007                  310.33       0.00       0.00       2.22     310.50       10.33    14.27   1.001
  S010004                  310.33       0.00       0.00       2.15     310.78        7.18    11.44   1.001
  S010006                  310.33       0.00       0.00       2.21     310.72        7.82    12.05   1.001
  S013009                  310.33       0.00       0.00       2.20     310.73        7.72    11.95   1.001
  S010008                  310.33       0.00       0.00       2.06     310.91        6.10    10.35   1.002
  S018004                  310.33       0.00       0.00       2.12     310.83        6.77    11.03   1.002
  S019001                  310.33       0.00       0.00       2.12     310.83        6.76    11.02   1.002
  S010009                  310.33       0.00       0.00       2.22     310.46       10.70    14.58   1.000
  S003001                  310.33       0.00       0.00       2.13     310.81        6.92    11.18   1.002
  S018005                  310.33       0.00       0.00       2.00     311.01        5.40     9.58   1.002
  S002005                  310.33       0.00       0.00       2.22     310.56        9.63    13.67   1.001
  S012001                  310.33       0.00       0.00       2.22     310.40       11.47    15.21   1.000
  S018006                  310.33       0.00       0.00       2.05     310.93        5.93    10.16   1.002
  S006003                  310.33       0.00       0.00       2.22     310.45       10.81    14.66   1.000
  S002004                  310.33       0.00       0.00       2.22     310.67        8.33    12.52   1.001
  S002006                  310.33       0.00       0.00       2.17     310.76        7.35    11.60   1.001
  S012002                  310.33       0.00       0.00       2.22     310.15       14.10    17.29   0.999
  S002007                  310.33       0.00       0.00       2.22     309.46       20.40    21.92   0.997
  S002003                  310.33       0.00       0.00       2.22     310.31       12.43    15.98   1.000
  S022003                  310.33       0.00       0.00       2.22     310.17       13.91    17.14   0.999
  S012003                  310.33       0.00       0.00       2.22     310.44       10.97    14.80   1.000
  S007006                  310.33       0.00       0.00       2.22     310.61        9.02    13.14   1.001
  S005004                  310.33       0.00       0.00       2.22     310.70        8.05    12.26   1.001
  S005005                  310.33       0.00       0.00       2.22     310.41       11.26    15.04   1.000
  S008004                  310.33       0.00       0.00       2.22     310.43       11.14    14.94   1.000
  S002001                  310.33       0.00       0.00       2.22     310.51       10.20    14.16   1.001
  S001003                  310.33       0.00       0.00       2.07     310.89        6.22    10.47   1.002
  S005003                  310.33       0.00       0.00       2.22     310.38       11.68    15.38   1.000
  S007003                  310.33       0.00       0.00       2.22     310.62        8.94    13.06   1.001
  S016001                  310.33       0.00       0.00       2.05     310.93        5.91    10.14   1.002
  S014003                  310.33       0.00       0.00       2.22     310.20       13.60    16.90   1.000
  S017002                  310.33       0.00       0.00       2.22     310.67        8.28    12.47   1.001
  S014001                  310.33       0.00       0.00       2.03     310.97        5.68     9.89   1.002
  S014002                  310.33       0.00       0.00       1.88     311.29        4.06     7.95   1.003
  S014005                  310.33       0.00       0.00       2.22     310.45       10.83    14.68   1.000
  S013003                  310.33       0.00       0.00       2.22     310.45       10.83    14.68   1.000
  S017001                  310.33       0.00       0.00       1.86     311.35        3.86     7.68   1.003
  S017005                  310.33       0.00       0.00       2.22     310.64        8.66    12.82   1.001
  S018001                  310.33       0.00       0.00       2.22     309.54       19.71    21.43   0.997
  S013005                  310.33       0.00       0.00       1.97     311.07        5.04     9.16   1.002
  S013002                  310.33       0.00       0.00       1.90     311.23        4.32     8.29   1.003
  S010002                  310.33       0.00       0.00       1.68     312.16        2.18     5.01   1.006
  S013001                  310.33       0.00       0.00       1.97     311.07        5.08     9.21   1.002
  S017004                  310.33       0.00       0.00       2.22     310.55        9.66    13.69   1.001
  S018003                  310.33       0.00       0.00       2.22     310.69        8.06    12.27   1.001
  S013008                  310.33       0.00       0.00       2.22     310.24       13.20    16.59   1.000
  S018002                  310.33       0.00       0.00       1.99     311.03        5.28     9.44   1.002
  S010003                  310.33       0.00       0.00       2.13     310.81        6.92    11.18   1.002
  S010005                  310.33       0.00       0.00       1.92     311.18        4.53     8.55   1.003
  S010007                  310.33       0.00       0.00       2.09     310.87        6.37    10.62   1.002
  S020001                  310.33       0.00       0.00       2.22     310.70        8.01    12.22   1.001
  S017006                  310.33       0.00       0.00       2.22     310.38       11.65    15.36   1.000
  S019002                  310.33       0.00       0.00       2.22     310.70        8.02    12.24   1.001
  S013010                  310.33       0.00       0.00       2.13     310.81        6.88    11.14   1.002
  S011001                  310.33       0.00       0.00       2.22     309.01       24.04    24.45   0.996
  S020003                  310.33       0.00       0.00       2.11     310.84        6.62    10.88   1.002
  S003002                  310.33       0.00       0.00       2.05     310.93        5.96    10.19   1.002
  S021001                  310.33       0.00       0.00       2.22     310.40       11.48    15.22   1.000
  S020002                  310.33       0.00       0.00       1.78     311.64        3.07     6.53   1.004
  S006002                  310.33       0.00       0.00       2.22     310.28       12.80    16.27   1.000
  S008005                  310.33       0.00       0.00       2.22     310.34       12.11    15.73   1.000
  S010001                  310.33       0.00       0.00       2.18     310.75        7.53    11.77   1.001
  S006001                  310.33       0.00       0.00       2.22     310.30       12.53    16.06   1.000
  S022002                  310.33       0.00       0.00       2.17     310.76        7.44    11.68   1.001
  S008006                  310.33       0.00       0.00       1.94     311.14        4.71     8.77   1.003
  S009003                  310.33       0.00       0.00       2.01     310.99        5.53     9.73   1.002
  S009002                  310.33       0.00       0.00       1.95     311.11        4.86     8.95   1.003
  S002002                  310.33       0.00       0.00       2.22     310.05       15.05    18.01   0.999
  S007005                  310.33       0.00       0.00       1.94     311.13        4.75     8.83   1.003
  S007004                  310.33       0.00       0.00       2.22     310.45       10.83    14.68   1.000
  S001004                  310.33       0.00       0.00       2.22     310.19       13.71    16.98   1.000
  S009001                  310.33       0.00       0.00       1.88     311.28        4.13     8.04   1.003
  S023003                  310.33       0.00       0.00       2.22     309.80       17.41    19.76   0.998
  S023004                  310.33       0.00       0.00       2.01     310.99        5.54     9.74   1.002
  S022001                  310.33       0.00       0.00       2.05     310.93        5.92    10.15   1.002
  S008003                  310.33       0.00       0.00       2.22     310.61        9.06    13.17   1.001
  S004002                  310.33       0.00       0.00       2.22     310.41       11.31    15.08   1.000
  S001002                  310.33       0.00       0.00       2.09     310.87        6.37    10.62   1.002
  S023002                  310.33       0.00       0.00       2.22     310.12       14.35    17.48   0.999
  S005002                  310.33       0.00       0.00       2.22     310.60        9.11    13.21   1.001
  S007002                  310.33       0.00       0.00       1.88     311.27        4.15     8.07   1.003
  S008002                  310.33       0.00       0.00       1.81     311.51        3.40     7.03   1.004
  S004001                  310.33       0.00       0.00       2.22     310.66        8.40    12.58   1.001
  S005001                  310.33       0.00       0.00       2.01     311.00        5.47     9.66   1.002
  S001001                  310.33       0.00       0.00       2.18     310.74        7.56    11.80   1.001
  S007001                  310.33       0.00       0.00       1.79     311.57        3.24     6.79   1.004
  S008001                  310.33       0.00       0.00       1.74     311.79        2.76     6.03   1.005
  S023001                  310.33       0.00       0.00       1.71     311.99        2.43     5.47   1.005
  
  
  ******************
  Node Depth Summary
  ******************
  
  ---------------------------------------------------------------------
                                 Average  Maximum  Maximum  Time of Max
                                   Depth    Depth      HGL   Occurrence
  Node                 Type       Meters   Meters   Meters  days hr:min
  ---------------------------------------------------------------------
  018002               JUNCTION     0.26     1.00     8.00     0  02:00
  018004               JUNCTION     0.22     1.00    13.04     0  02:00
  018006               JUNCTION     0.12     1.00    15.88     0  02:00
  002004               JUNCTION     0.06     1.00    30.24     0  02:02
  002003               JUNCTION     0.17     1.00    12.10     0  02:00
  002002               JUNCTION     0.17     1.00    14.00     0  02:00
  002001               JUNCTION     0.11     1.00    15.20     0  02:00
  001003               JUNCTION     0.09     1.00    14.25     0  02:00
  001002               JUNCTION     0.05     1.00     8.00     0  02:01
  018003               JUNCTION     0.26     1.00     9.04     0  02:00
  017005               JUNCTION     0.09     1.00    16.23     0  02:00
  014005               JUNCTION     0.15     1.00    22.62     0  02:00
  014003               JUNCTION     0.13     1.00    10.57     0  02:00
  014002               JUNCTION     0.13     1.00     9.00     0  02:01
  002006               JUNCTION     0.18     1.00    47.25     0  02:00
  002007               JUNCTION     0.13     1.00    53.25     0  02:00
  004002               JUNCTION     0.08     1.00    15.00     0  02:01
  023004               JUNCTION     0.11     1.00    13.48     0  02:00
  023003               JUNCTION     0.17     1.00    12.19     0  02:00
  023002               JUNCTION     0.17     1.00    10.00     0  02:00
  022003               JUNCTION     0.20     1.00     9.00     0  02:00
  022002               JUNCTION     0.20     1.00     7.00     0  02:00
  018005               JUNCTION     0.23     1.00    14.87     0  02:00
  020003               JUNCTION     0.12     1.00    13.00     0  02:01
  017004               JUNCTION     0.09     1.00    14.19     0  02:00
  017002               JUNCTION     0.15     1.00     9.00     0  02:00
  014006               JUNCTION     0.15     1.00    23.87     0  02:00
  013009               JUNCTION     0.12     1.00    25.11     0  02:00
  013010               JUNCTION     0.09     1.00    26.23     0  02:00
  006003               JUNCTION     0.12     1.00    15.93     0  02:00
  006002               JUNCTION     0.14     1.00    14.32     0  02:00
  006001               JUNCTION     0.18     1.00    11.32     0  02:00
  005003               JUNCTION     0.19     1.00     8.00     0  02:00
  005002               JUNCTION     0.19     1.00     6.00     0  02:00
  001004               JUNCTION     0.10     1.00    36.29     0  02:00
  005005               JUNCTION     0.12     1.00    30.04     0  02:00
  005004               JUNCTION     0.18     1.00    22.03     0  02:00
  007006               JUNCTION     0.19     1.00    20.47     0  02:00
  008005               JUNCTION     0.21     1.00    16.29     0  02:00
  009003               JUNCTION     0.21     1.00    14.00     0  02:01
  007005               JUNCTION     0.19     1.00    19.40     0  02:00
  007004               JUNCTION     0.12     1.00    21.54     0  02:00
  007003               JUNCTION     0.14     1.00    19.81     0  02:00
  007002               JUNCTION     0.14     1.00    19.00     0  02:00
  008004               JUNCTION     0.12     1.00    13.81     0  02:00
  008003               JUNCTION     0.15     1.00    11.82     0  02:00
  008002               JUNCTION     0.15     1.00    11.00     0  02:00
  009002               JUNCTION     0.05     1.00     6.00     0  02:01
  011001               JUNCTION     0.18     1.00    15.00     0  02:00
  013005               JUNCTION     0.17     1.00    24.00     0  02:01
  015001               JUNCTION     0.07     1.00    20.00     0  02:01
  002005               JUNCTION     0.18     1.00    46.31     0  02:00
  003001               JUNCTION     0.11     1.00    47.56     0  02:00
  003002               JUNCTION     0.08     1.00    48.79     0  02:00
  010009               JUNCTION     0.12     1.00    30.51     0  02:00
  010008               JUNCTION     0.13     1.00    29.11     0  02:00
  010007               JUNCTION     0.15     1.00    27.96     0  02:00
  010006               JUNCTION     0.16     1.00    26.70     0  02:00
  010005               JUNCTION     0.16     1.00    25.74     0  02:00
  010004               JUNCTION     0.18     1.00    16.60     0  02:00
  010003               JUNCTION     0.18     1.00    15.00     0  02:00
  019001               JUNCTION     0.23     1.00    16.24     0  02:00
  019002               JUNCTION     0.23     1.00    17.11     0  02:00
  017006               JUNCTION     0.16     1.00    24.95     0  02:00
  013008               JUNCTION     0.13     1.00    28.26     0  02:00
  013007               JUNCTION     0.16     1.00    26.47     0  02:00
  013006               JUNCTION     0.17     1.00    25.36     0  02:00
  013004               JUNCTION     0.19     1.00    17.67     0  02:00
  013003               JUNCTION     0.20     1.00    16.16     0  02:00
  013002               JUNCTION     0.20     1.00    15.00     0  02:00
  008006               JUNCTION     0.20     1.00    17.40     0  02:00
  012002               JUNCTION     0.16     1.00    22.89     0  02:00
  012001               JUNCTION     0.17     1.00    21.00     0  02:00
  014004               JUNCTION     0.17     1.00    16.57     0  02:00
  016002               JUNCTION     0.17     1.00    15.00     0  02:00
  021001               JUNCTION     0.12     1.00    14.83     0  02:00
  017003               JUNCTION     0.15     1.00    10.19     0  02:00
  012003               JUNCTION     0.12     1.00    24.06     0  02:00
  001001               OUTFALL      0.05     0.97     0.97     0  02:03
  004001               OUTFALL      0.07     1.00     1.00     0  02:01
  005001               OUTFALL      0.14     1.00     1.00     0  02:01
  007001               OUTFALL      0.05     0.49     0.49     0  02:02
  008001               OUTFALL      0.06     0.56     0.56     0  02:02
  009001               OUTFALL      0.05     1.00     1.00     0  02:01
  010001               OUTFALL      0.18     1.00     1.00     0  02:01
  010002               OUTFALL      0.08     0.68     0.68     0  02:02
  013001               OUTFALL      0.07     0.52     0.52     0  02:02
  014001               OUTFALL      0.07     1.00     1.00     0  02:01
  016001               OUTFALL      0.07     0.54     0.54     0  02:02
  017001               OUTFALL      0.08     0.98     0.98     0  02:02
  018001               OUTFALL      0.11     0.77     0.77     0  02:02
  020001               OUTFALL      0.00     0.00     0.00     0  00:00
  020002               OUTFALL      0.05     0.53     0.53     0  02:02
  022001               OUTFALL      0.09     0.77     0.77     0  02:02
  023001               OUTFALL      0.12     1.00     1.00     0  02:01
  
  
  *******************
  Node Inflow Summary
  *******************
  
  -------------------------------------------------------------------------------------
                                  Maximum  Maximum                  Lateral       Total
                                  Lateral    Total  Time of Max      Inflow      Inflow
                                   Inflow   Inflow   Occurrence      Volume      Volume
  Node                 Type           CMS      CMS  days hr:min    10^6 ltr    10^6 ltr
  -------------------------------------------------------------------------------------
  018002               JUNCTION     9.439   12.558     0  02:02       5.276      20.036
  018004               JUNCTION    11.028   15.272     0  02:02       6.766      23.442
  018006               JUNCTION    10.163   22.376     0  02:02       5.930      14.245
  002004               JUNCTION    12.520   12.520     0  02:02       8.331       8.331
  002003               JUNCTION    15.980   19.098     0  02:02      12.430      21.012
  002002               JUNCTION    18.011   21.129     0  02:02      15.051      20.498
  002001               JUNCTION    14.158   14.158     0  02:02      10.202      10.202
  001003               JUNCTION    10.473   10.473     0  02:02       6.224       6.224
  001002               JUNCTION    10.621   10.621     0  02:02       6.366       6.366
  018003               JUNCTION    12.271   21.925     0  02:02       8.060      32.841
  017005               JUNCTION    12.815   12.815     0  02:02       8.657       8.657
  014005               JUNCTION    14.684   17.803     0  02:02      10.831      18.549
  014003               JUNCTION    16.902   16.902     0  02:02      13.604      13.604
  014002               JUNCTION     7.949   11.068     0  02:02       4.062      10.663
  002006               JUNCTION    11.603   17.735     0  02:02       7.352      19.801
  002007               JUNCTION    21.921   21.921     0  02:02      20.403      20.402
  004002               JUNCTION    15.079   15.079     0  02:02      11.311      11.311
  023004               JUNCTION     9.741   12.858     0  02:02       5.544       9.475
  023003               JUNCTION    19.764   22.883     0  02:02      17.406      22.748
  023002               JUNCTION    17.478   20.595     0  02:02      14.350      23.419
  022003               JUNCTION    17.141   21.204     0  02:02      13.913      25.735
  022002               JUNCTION    11.683   15.139     0  02:02       7.435      19.644
  018005               JUNCTION     9.585   15.821     0  02:02       5.404      24.321
  020003               JUNCTION    10.878   13.995     0  02:02       6.618      12.514
  017004               JUNCTION    13.692   13.692     0  02:02       9.655       9.655
  017002               JUNCTION    12.472   15.589     0  02:02       8.278      15.941
  014006               JUNCTION    13.680   16.799     0  02:02       9.641      15.728
  013009               JUNCTION    11.951   15.071     0  02:02       7.717      11.923
  013010               JUNCTION    11.145   11.145     0  02:02       6.883       6.883
  006003               JUNCTION    14.665   14.665     0  02:02      10.807      10.807
  006002               JUNCTION    16.271   19.388     0  02:02      12.797      18.460
  006001               JUNCTION    16.064   20.829     0  02:02      12.535      22.924
  005003               JUNCTION    15.375   18.493     0  02:02      11.676      21.520
  005002               JUNCTION    13.214   16.971     0  02:02       9.106      21.405
  001004               JUNCTION    16.985   16.985     0  02:02      13.710      13.710
  005005               JUNCTION    15.041   22.531     0  02:02      11.265      21.531
  005004               JUNCTION    12.262   19.069     0  02:02       8.050      21.090
  007006               JUNCTION    13.137   16.255     0  02:02       9.019      18.324
  008005               JUNCTION    15.727   18.844     0  02:02      12.112      22.914
  009003               JUNCTION     9.726   12.843     0  02:02       5.530      17.381
  007005               JUNCTION     8.825   11.944     0  02:02       4.754      14.916
  007004               JUNCTION    14.685   14.685     0  02:02      10.831      10.831
  007003               JUNCTION    13.065   16.182     0  02:02       8.937      14.613
  007002               JUNCTION     8.068   11.186     0  02:02       4.152      11.465
  008004               JUNCTION    14.939   14.939     0  02:02      11.140      11.140
  008003               JUNCTION    13.175   16.293     0  02:02       9.062      14.848
  008002               JUNCTION     7.030   10.149     0  02:02       3.403      10.826
  009002               JUNCTION     8.948    8.948     0  02:02       4.856       4.856
  011001               JUNCTION    24.445   28.688     0  02:02      24.039      35.937
  013005               JUNCTION     9.161   12.280     0  02:02       5.036      14.032
  015001               JUNCTION    14.226   14.226     0  02:02      10.282      10.282
  002005               JUNCTION    13.672   19.909     0  02:02       9.633      24.685
  003001               JUNCTION    11.182   14.300     0  02:02       6.921      10.751
  003002               JUNCTION    10.194   10.194     0  02:02       5.960       5.960
  010009               JUNCTION    14.576   14.576     0  02:02      10.700      10.700
  010008               JUNCTION    10.346   13.464     0  02:02       6.103      11.725
  010007               JUNCTION    10.622   13.740     0  02:02       6.368      13.082
  010006               JUNCTION    12.049   15.168     0  02:02       7.821      15.445
  010005               JUNCTION     8.554   11.673     0  02:02       4.533      13.090
  010004               JUNCTION    11.437   23.112     0  02:02       7.181      20.267
  010003               JUNCTION    11.182   14.299     0  02:02       6.921      16.555
  019001               JUNCTION    11.021   14.141     0  02:02       6.760      19.316
  019002               JUNCTION    12.236   20.342     0  02:02       8.023      29.368
  017006               JUNCTION    15.357   25.028     0  02:02      11.652      32.218
  013008               JUNCTION    16.588   16.588     0  02:02      13.200      13.200
  013007               JUNCTION    14.269   17.387     0  02:02      10.334      16.808
  013006               JUNCTION    11.528   14.648     0  02:02       7.274      15.445
  013004               JUNCTION    10.964   20.132     0  02:02       6.702      20.198
  013003               JUNCTION    14.684   17.801     0  02:02      10.831      20.821
  013002               JUNCTION     8.286   11.406     0  02:02       4.321      15.275
  008006               JUNCTION     8.770   13.641     0  02:02       4.708      17.367
  012002               JUNCTION    17.289   20.406     0  02:02      14.105      19.820
  012001               JUNCTION    15.207   18.325     0  02:02      11.468      19.980
  014004               JUNCTION    14.616   20.600     0  02:02      10.748      23.893
  016002               JUNCTION     7.774   12.224     0  02:02       3.931      16.562
  021001               JUNCTION    15.217   15.217     0  02:02      11.480      11.480
  017003               JUNCTION    15.451   21.044     0  02:02      11.769      18.752
  012003               JUNCTION    14.799   14.799     0  02:02      10.970      10.970
  001001               OUTFALL     11.800   22.013     0  02:02       7.557      13.882
  004001               OUTFALL     12.580   22.461     0  02:02       8.397      18.403
  005001               OUTFALL      9.657   17.226     0  02:02       5.469      23.353
  007001               OUTFALL      6.788   18.005     0  02:02       3.241      14.700
  008001               OUTFALL      6.028   16.211     0  02:02       2.760      13.581
  009001               OUTFALL      8.035   15.574     0  02:02       4.127       8.846
  010001               OUTFALL     11.771   31.240     0  02:02       7.527      45.270
  010002               OUTFALL      5.007   19.309     0  02:02       2.179      18.726
  013001               OUTFALL      9.215   20.630     0  02:02       5.082      20.349
  014001               OUTFALL      9.892   31.956     0  02:02       5.680      26.019
  016001               OUTFALL     10.145   22.409     0  02:02       5.914      22.468
  017001               OUTFALL      7.677   22.951     0  02:02       3.860      19.746
  018001               OUTFALL     21.429   33.970     0  02:02      19.709      39.738
  020001               OUTFALL     12.225   12.225     0  02:02       8.010       8.010
  020002               OUTFALL      6.532   20.519     0  02:02       3.074      15.583
  022001               OUTFALL     10.154   25.302     0  02:02       5.922      25.559
  023001               OUTFALL      5.465   15.718     0  02:02       2.431      21.886
  
  
  **********************
  Node Surcharge Summary
  **********************
  
  Surcharging occurs when water rises above the top of the highest conduit.
  ---------------------------------------------------------------------
                                               Max. Height   Min. Depth
                                   Hours       Above Crown    Below Rim
  Node                 Type      Surcharged         Meters       Meters
  ---------------------------------------------------------------------
  018002               JUNCTION        0.84          0.000        0.000
  018004               JUNCTION        0.51          0.000        0.000
  018006               JUNCTION        0.30          0.000        0.000
  002004               JUNCTION        0.03          0.000        0.000
  002003               JUNCTION        0.48          0.000        0.000
  002002               JUNCTION        0.45          0.000        0.000
  002001               JUNCTION        0.27          0.000        0.000
  001003               JUNCTION        0.18          0.000        0.000
  001002               JUNCTION        0.06          0.000        0.000
  018003               JUNCTION        0.87          0.000        0.000
  017005               JUNCTION        0.18          0.000        0.000
  014005               JUNCTION        0.40          0.000        0.000
  014003               JUNCTION        0.33          0.000        0.000
  014002               JUNCTION        0.31          0.000        0.000
  002006               JUNCTION        0.49          0.000        0.000
  002007               JUNCTION        0.30          0.000        0.000
  004002               JUNCTION        0.12          0.000        0.000
  023004               JUNCTION        0.27          0.000        0.000
  023003               JUNCTION        0.47          0.000        0.000
  023002               JUNCTION        0.47          0.000        0.000
  022003               JUNCTION        0.61          0.000        0.000
  022002               JUNCTION        0.58          0.000        0.000
  018005               JUNCTION        0.72          0.000        0.000
  020003               JUNCTION        0.28          0.000        0.000
  017004               JUNCTION        0.17          0.000        0.000
  017002               JUNCTION        0.38          0.000        0.000
  014006               JUNCTION        0.41          0.000        0.000
  013009               JUNCTION        0.31          0.000        0.000
  013010               JUNCTION        0.20          0.000        0.000
  006003               JUNCTION        0.28          0.000        0.000
  006002               JUNCTION        0.34          0.000        0.000
  006001               JUNCTION        0.53          0.000        0.000
  005003               JUNCTION        0.57          0.000        0.000
  005002               JUNCTION        0.55          0.000        0.000
  001004               JUNCTION        0.18          0.000        0.000
  005005               JUNCTION        0.29          0.000        0.000
  005004               JUNCTION        0.50          0.000        0.000
  007006               JUNCTION        0.56          0.000        0.000
  008005               JUNCTION        0.67          0.000        0.000
  009003               JUNCTION        0.65          0.000        0.000
  007005               JUNCTION        0.53          0.000        0.000
  007004               JUNCTION        0.28          0.000        0.000
  007003               JUNCTION        0.38          0.000        0.000
  007002               JUNCTION        0.36          0.000        0.000
  008004               JUNCTION        0.28          0.000        0.000
  008003               JUNCTION        0.38          0.000        0.000
  008002               JUNCTION        0.37          0.000        0.000
  009002               JUNCTION        0.06          0.000        0.000
  011001               JUNCTION        0.51          0.000        0.000
  013005               JUNCTION        0.45          0.000        0.000
  015001               JUNCTION        0.09          0.000        0.000
  002005               JUNCTION        0.47          0.000        0.000
  003001               JUNCTION        0.28          0.000        0.000
  003002               JUNCTION        0.17          0.000        0.000
  010009               JUNCTION        0.28          0.000        0.000
  010008               JUNCTION        0.34          0.000        0.000
  010007               JUNCTION        0.40          0.000        0.000
  010006               JUNCTION        0.46          0.000        0.000
  010005               JUNCTION        0.44          0.000        0.000
  010004               JUNCTION        0.53          0.000        0.000
  010003               JUNCTION        0.51          0.000        0.000
  019001               JUNCTION        0.73          0.000        0.000
  019002               JUNCTION        0.71          0.000        0.000
  017006               JUNCTION        0.39          0.000        0.000
  013008               JUNCTION        0.32          0.000        0.000
  013007               JUNCTION        0.42          0.000        0.000
  013006               JUNCTION        0.48          0.000        0.000
  013004               JUNCTION        0.55          0.000        0.000
  013003               JUNCTION        0.62          0.000        0.000
  013002               JUNCTION        0.59          0.000        0.000
  008006               JUNCTION        0.61          0.000        0.000
  012002               JUNCTION        0.44          0.000        0.000
  012001               JUNCTION        0.47          0.000        0.000
  014004               JUNCTION        0.48          0.000        0.000
  016002               JUNCTION        0.46          0.000        0.000
  021001               JUNCTION        0.29          0.000        0.000
  017003               JUNCTION        0.40          0.000        0.000
  012003               JUNCTION        0.28          0.000        0.000
  
  
  *********************
  Node Flooding Summary
  *********************
  
  Flooding refers to all water that overflows a node, whether it ponds or not.
  --------------------------------------------------------------------------
                                                             Total   Maximum
                                 Maximum   Time of Max       Flood    Ponded
                        Hours       Rate    Occurrence      Volume    Volume
  Node                 Flooded       CMS   days hr:min    10^6 ltr   1000 m3
  --------------------------------------------------------------------------
  018004                  0.38    10.039      0  02:02       4.687     0.000
  018006                  0.30    19.166      0  02:02       8.325     0.000
  002004                  0.03     0.412      0  02:02       0.031     0.000
  002003                  0.48    14.996      0  02:02       9.310     0.000
  002002                  0.45    17.955      0  02:02      12.035     0.000
  002001                  0.27    10.998      0  02:02       4.824     0.000
  001003                  0.18     7.246      0  02:02       2.325     0.000
  001002                  0.06     0.947      0  02:02       0.097     0.000
  018003                  0.87    18.740      0  02:02      18.132     0.000
  017005                  0.18     8.241      0  02:02       2.825     0.000
  014005                  0.29    11.780      0  02:02       5.487     0.000
  014003                  0.33    13.739      0  02:02       7.096     0.000
  002006                  0.49    14.537      0  02:02      10.451     0.000
  002007                  0.30    15.665      0  02:02       8.032     0.000
  004002                  0.12     5.160      0  02:02       1.320     0.000
  023004                  0.27     9.609      0  02:02       4.203     0.000
  023003                  0.47    19.684      0  02:02      13.818     0.000
  023002                  0.20    10.293      0  02:02       3.986     0.000
  022003                  0.61    17.702      0  02:02      13.629     0.000
  018005                  0.57    11.443      0  02:02       7.713     0.000
  017004                  0.17     8.053      0  02:02       2.682     0.000
  017002                  0.06     1.093      0  02:02       0.127     0.000
  014006                  0.41    13.634      0  02:02       8.089     0.000
  013009                  0.31    11.878      0  02:02       5.917     0.000
  013010                  0.20     7.933      0  02:02       2.719     0.000
  006003                  0.28    11.508      0  02:02       5.222     0.000
  006002                  0.34    14.582      0  02:02       8.164     0.000
  006001                  0.53    17.672      0  02:02      13.262     0.000
  005003                  0.57    14.698      0  02:02       9.308     0.000
  005002                  0.22     9.351      0  02:02       3.565     0.000
  001004                  0.18     9.450      0  02:02       3.445     0.000
  005005                  0.29    15.686      0  02:02       8.583     0.000
  005004                  0.50    15.884      0  02:02      11.880     0.000
  007006                  0.56    13.084      0  02:02       8.231     0.000
  008005                  0.67    15.688      0  02:02      11.194     0.000
  007005                  0.21     6.916      0  02:02       2.301     0.000
  007004                  0.28    11.528      0  02:02       5.238     0.000
  007003                  0.38    13.010      0  02:02       7.356     0.000
  008004                  0.28    11.783      0  02:02       5.442     0.000
  008003                  0.38    13.121      0  02:02       7.482     0.000
  009002                  0.06     1.255      0  02:02       0.153     0.000
  011001                  0.51    21.902      0  02:02      15.701     0.000
  013005                  0.08     2.965      0  02:02       0.532     0.000
  015001                  0.09     3.195      0  02:02       0.648     0.000
  002005                  0.24    10.191      0  02:02       4.162     0.000
  003001                  0.28    11.091      0  02:02       5.175     0.000
  003002                  0.17     6.959      0  02:02       2.169     0.000
  010009                  0.28    11.418      0  02:02       5.151     0.000
  010008                  0.34    10.234      0  02:02       5.086     0.000
  010007                  0.40    10.516      0  02:02       5.547     0.000
  010006                  0.46    11.977      0  02:02       6.949     0.000
  010004                  0.53    19.765      0  02:02      10.732     0.000
  019001                  0.73    10.927      0  02:02       6.460     0.000
  019002                  0.71    17.155      0  02:02      16.861     0.000
  017006                  0.39    16.884      0  02:02      10.967     0.000
  013008                  0.32    13.427      0  02:02       6.822     0.000
  013007                  0.42    14.226      0  02:02       8.710     0.000
  013006                  0.48    11.447      0  02:02       6.548     0.000
  013004                  0.55    16.918      0  02:02      10.297     0.000
  013003                  0.62    14.643      0  02:02       9.936     0.000
  008006                  0.61    10.365      0  02:02       6.631     0.000
  012002                  0.44    17.240      0  02:02      11.430     0.000
  012001                  0.47    14.044      0  02:02       8.226     0.000
  014004                  0.48    16.110      0  02:02      11.314     0.000
  021001                  0.29    12.061      0  02:02       5.667     0.000
  017003                  0.40    17.888      0  02:02      11.168     0.000
  012003                  0.28    11.643      0  02:02       5.329     0.000
  
  
  ***********************
  Outfall Loading Summary
  ***********************
  
  -----------------------------------------------------------
                        Flow       Avg.      Max.       Total
                        Freq.      Flow      Flow      Volume
  Outfall Node          Pcnt.       CMS       CMS    10^6 ltr
  -----------------------------------------------------------
  001001                74.34     0.863    22.013      13.882
  004001                78.92     1.078    22.461      18.403
  005001                78.92     1.368    17.226      23.353
  007001                78.92     0.861    18.005      14.700
  008001                79.06     0.794    16.211      13.581
  009001                65.05     0.629    15.574       8.846
  010001                79.06     2.648    31.240      45.270
  010002                79.06     1.095    19.309      18.726
  013001                79.06     1.190    20.630      20.349
  014001                79.06     1.522    31.956      26.019
  016001                79.06     1.314    22.409      22.468
  017001                79.06     1.155    22.951      19.746
  018001                79.06     2.324    33.970      39.738
  020001                75.87     0.488    12.225       8.010
  020002                78.92     0.913    20.519      15.583
  022001                79.20     1.492    25.302      25.559
  023001                78.92     1.282    15.718      21.886
  -----------------------------------------------------------
  System                77.74    21.018   367.718     356.120
  
  
  ********************
  Link Flow Summary
  ********************
  
  -----------------------------------------------------------------------------
                                 Maximum  Time of Max   Maximum    Max/    Max/
                                  |Flow|   Occurrence   |Veloc|    Full    Full
  Link                 Type          CMS  days hr:min     m/sec    Flow   Depth
  -----------------------------------------------------------------------------
  023002               CONDUIT    11.026     0  02:11     15.00    1.08    1.00
  023003               CONDUIT     3.341     0  02:29      4.73    1.07    1.00
  C4                   CONDUIT     3.262     0  02:11      4.71    1.05    1.00
  001002               CONDUIT    10.213     0  02:02     14.04    1.07    0.99
  C8                   CONDUIT     3.351     0  02:16      4.69    1.07    1.00
  004002               CONDUIT    10.077     0  02:07     14.76    1.02    1.00
  C7                   CONDUIT     3.297     0  02:27      4.74    1.06    1.00
  C6                   CONDUIT     3.343     0  02:16      4.67    1.07    1.00
  002003_2             CONDUIT     4.270     0  02:29      6.15    1.05    1.00
  022003               CONDUIT     3.695     0  02:35      5.16    1.07    1.00
  022002               CONDUIT    15.149     0  02:02     23.25    0.94    0.77
  002004_2             CONDUIT    12.266     0  02:02     17.62    1.02    0.92
  018006               CONDUIT     3.249     0  02:17      4.69    1.04    1.00
  C3                   CONDUIT     3.297     0  02:44      4.69    1.06    1.00
  020003               CONDUIT    13.987     0  02:02     32.70    0.56    0.53
  021001               CONDUIT     3.244     0  02:18      4.79    1.04    1.00
  018005_2             CONDUIT     4.539     0  02:31      6.26    1.07    1.00
  018004               CONDUIT     5.462     0  02:20      7.58    1.06    1.00
  018003_2             CONDUIT     3.289     0  02:51      4.62    1.05    1.00
  018002               CONDUIT    12.541     0  02:02     19.22    0.94    0.77
  017005_1             CONDUIT     4.835     0  02:11      6.95    1.07    1.00
  017004               CONDUIT     5.842     0  02:10      8.41    1.04    1.00
  017003               CONDUIT     3.337     0  02:24      4.66    1.07    1.00
  017002               CONDUIT    15.274     0  02:02     20.97    1.06    0.99
  002005_1             CONDUIT    10.223     0  02:13     14.30    1.06    1.00
  017006_2             CONDUIT     8.665     0  02:22     11.94    1.07    1.00
  019002               CONDUIT     3.300     0  02:41      4.61    1.06    1.00
  002006               CONDUIT     3.235     0  02:29      4.65    1.04    1.00
  002007               CONDUIT     6.514     0  02:17      9.13    1.06    1.00
  001004_3             CONDUIT     7.998     0  02:10     10.97    1.07    1.00
  005005               CONDUIT     7.062     0  02:17     10.21    1.04    1.00
  005004_1             CONDUIT     3.279     0  02:30      4.73    1.05    1.00
  007006               CONDUIT     3.339     0  02:32      4.64    1.07    1.00
  007005_1             CONDUIT     5.149     0  02:11      7.15    1.06    1.00
  008006_1             CONDUIT     3.255     0  02:35      4.66    1.04    1.00
  008005_1             CONDUIT     3.356     0  02:40      4.72    1.08    1.00
  009003_1             CONDUIT    12.861     0  02:02     25.89    0.68    0.60
  C5                   CONDUIT     4.532     0  02:28      6.48    1.07    1.00
  009002               CONDUIT     7.782     0  02:03     11.18    1.03    1.00
  008004               CONDUIT     3.280     0  02:17      4.78    1.05    1.00
  008003               CONDUIT     3.273     0  02:22      4.67    1.05    1.00
  008002               CONDUIT    10.182     0  02:02     22.69    0.60    0.56
  007004               CONDUIT     3.289     0  02:17      4.76    1.05    1.00
  007003               CONDUIT     3.306     0  02:22      4.64    1.06    1.00
  007002               CONDUIT    11.216     0  02:02     29.10    0.49    0.49
  005003               CONDUIT     3.961     0  02:34      5.62    1.05    1.00
  005002               CONDUIT     7.905     0  02:12     11.11    1.04    1.00
  006003               CONDUIT     3.269     0  02:17      4.76    1.05    1.00
  006002               CONDUIT     4.998     0  02:20      7.15    1.05    1.00
  C1                   CONDUIT     3.317     0  02:32      4.77    1.06    1.00
  003001               CONDUIT     3.293     0  02:17      4.70    1.06    1.00
  003002               CONDUIT     3.307     0  02:10      4.76    1.06    1.00
  013010               CONDUIT     3.281     0  02:12      4.70    1.05    1.00
  013009_1             CONDUIT     3.336     0  02:18      4.68    1.07    1.00
  014006               CONDUIT     3.220     0  02:25      4.73    1.03    1.00
  014005_2             CONDUIT     6.415     0  02:16      8.87    1.07    1.00
  014003               CONDUIT     3.283     0  02:20      4.74    1.05    1.00
  014002               CONDUIT    11.076     0  02:02     20.54    0.75    0.65
  014004_2             CONDUIT     4.667     0  02:28      6.58    1.05    1.00
  016002               CONDUIT    12.264     0  02:02     28.61    0.56    0.54
  013008               CONDUIT     3.316     0  02:18      4.74    1.06    1.00
  013007               CONDUIT     3.278     0  02:25      4.67    1.05    1.00
  013006               CONDUIT     3.350     0  02:28      4.67    1.07    1.00
  C9                   CONDUIT    11.474     0  02:01     16.43    1.04    1.00
  013005_2             CONDUIT     9.357     0  02:05     13.51    1.02    1.00
  013004               CONDUIT     3.280     0  02:33      4.72    1.05    1.00
  013003               CONDUIT     3.281     0  02:36      4.66    1.05    1.00
  013002               CONDUIT    11.415     0  02:02     27.38    0.54    0.52
  010009               CONDUIT     3.217     0  02:17      4.77    1.03    1.00
  010008               CONDUIT     3.257     0  02:20      4.69    1.04    1.00
  010007               CONDUIT     3.328     0  02:24      4.67    1.07    1.00
  010006               CONDUIT     3.265     0  02:27      4.67    1.05    1.00
  010005_1             CONDUIT    11.675     0  02:02     18.84    0.89    0.74
  010004               CONDUIT     3.307     0  02:31      4.68    1.06    1.00
  010003               CONDUIT    14.302     0  02:02     24.94    0.81    0.68
  012003               CONDUIT     3.320     0  02:16      4.71    1.07    1.00
  012002               CONDUIT     3.339     0  02:27      4.72    1.07    1.00
  C2                   CONDUIT     6.990     0  02:31      9.97    1.06    1.00
  
  
  *************************
  Conduit Surcharge Summary
  *************************
  
  ----------------------------------------------------------------------------
                                                           Hours        Hours 
                         --------- Hours Full --------   Above Full   Capacity
  Conduit                Both Ends  Upstream  Dnstream   Normal Flow   Limited
  ----------------------------------------------------------------------------
  023002                      0.17      0.19      0.17      0.03         0.19
  023003                      0.46      0.47      0.47      0.03         0.47
  C4                          0.16      0.17      0.16      0.17         0.17
  001002                      0.01      0.05      0.01      0.04         0.05
  C8                          0.24      0.26      0.24      0.02         0.26
  004002                      0.10      0.11      0.10      0.12         0.11
  C7                          0.43      0.44      0.44      0.46         0.44
  C6                          0.24      0.26      0.24      0.26         0.26
  002003_2                    0.46      0.47      0.47      0.03         0.47
  022003                      0.58      0.60      0.58      0.61         0.60
  002004_2                    0.01      0.03      0.01      0.03         0.03
  018006                      0.28      0.29      0.28      0.31         0.29
  C3                          0.72      0.72      0.72      0.74         0.72
  021001                      0.27      0.28      0.28      0.29         0.28
  018005_2                    0.51      0.57      0.51      0.57         0.57
  018004                      0.32      0.38      0.32      0.38         0.38
  018003_2                    0.84      0.86      0.84      0.87         0.86
  017005_1                    0.17      0.17      0.17      0.01         0.17
  017004                      0.15      0.17      0.15      0.02         0.17
  017003                      0.38      0.39      0.38      0.02         0.39
  017002                      0.01      0.05      0.01      0.05         0.05
  002005_1                    0.20      0.23      0.20      0.23         0.23
  017006_2                    0.35      0.38      0.35      0.38         0.38
  019002                      0.68      0.70      0.68      0.71         0.70
  002006                      0.47      0.48      0.47      0.50         0.48
  002007                      0.27      0.29      0.27      0.03         0.29
  001004_3                    0.16      0.17      0.16      0.17         0.17
  005005                      0.27      0.28      0.27      0.29         0.28
  005004_1                    0.48      0.49      0.49      0.51         0.49
  007006                      0.53      0.55      0.53      0.03         0.55
  007005_1                    0.17      0.20      0.17      0.20         0.20
  008006_1                    0.58      0.60      0.58      0.03         0.60
  008005_1                    0.64      0.66      0.65      0.03         0.66
  C5                          0.44      0.46      0.45      0.47         0.46
  009002                      0.03      0.05      0.03      0.04         0.05
  008004                      0.26      0.28      0.27      0.28         0.28
  008003                      0.37      0.38      0.37      0.39         0.38
  007004                      0.25      0.27      0.26      0.28         0.27
  007003                      0.36      0.38      0.36      0.03         0.38
  005003                      0.55      0.56      0.55      0.03         0.56
  005002                      0.18      0.21      0.18      0.21         0.21
  006003                      0.25      0.27      0.26      0.02         0.27
  006002                      0.32      0.33      0.32      0.03         0.33
  C1                          0.51      0.52      0.52      0.54         0.52
  003001                      0.26      0.28      0.26      0.28         0.28
  003002                      0.15      0.17      0.15      0.03         0.17
  013010                      0.17      0.19      0.17      0.19         0.19
  013009_1                    0.28      0.30      0.28      0.30         0.30
  014006                      0.39      0.40      0.40      0.42         0.40
  014005_2                    0.25      0.28      0.25      0.03         0.28
  014003                      0.30      0.32      0.31      0.33         0.32
  014004_2                    0.46      0.47      0.46      0.48         0.47
  013008                      0.29      0.31      0.30      0.32         0.31
  013007                      0.41      0.42      0.41      0.03         0.42
  013006                      0.45      0.47      0.45      0.48         0.47
  C9                          0.07      0.08      0.07      0.03         0.08
  013005_2                    0.07      0.07      0.07      0.07         0.07
  013004                      0.53      0.54      0.54      0.56         0.54
  013003                      0.59      0.61      0.59      0.03         0.61
  010009                      0.25      0.27      0.26      0.02         0.27
  010008                      0.32      0.33      0.32      0.03         0.33
  010007                      0.38      0.39      0.38      0.41         0.39
  010006                      0.44      0.45      0.44      0.47         0.45
  010004                      0.51      0.53      0.51      0.53         0.53
  012003                      0.25      0.27      0.25      0.28         0.27
  012002                      0.42      0.43      0.43      0.45         0.43
  C2                          0.48      0.50      0.49      0.51         0.50
  

  Analysis begun on:  Wed Mar 22 17:52:22 2023
  Analysis ended on:  Wed Mar 22 17:52:22 2023
  Total elapsed time: < 1 sec